Circuit: * C:\Users\dbata\OneDrive\Escritorio\Checkpoint 1\Par Diferencial\PD.asc

Warning: Multiple definitions of model "2scr375p" Type: BJT
Warning: Multiple definitions of model "bc857b" Type: BJT
Warning: Multiple definitions of model "bc847c" Type: BJT
Warning: Multiple definitions of model "bc847b" Type: BJT
Direct Newton iteration for .op point succeeded.
.step re=50
.step re=100
.step re=150
.step re=200
.step re=250
.step re=300
.step re=350
.step re=400
.step re=450
.step re=500



Date: Thu Mar 27 14:59:13 2025
Total elapsed time: 0.097 seconds.

tnom = 27
temp = 27
method = trap
totiter = 8
traniter = 0
tranpoints = 0
accept = 0
rejected = 0
matrix size = 30
fillins = 10
solver = Normal
Matrix Compiler1:     147 opcodes
Matrix Compiler2: 2.77 KB object code size
