Circuit: * C:\Users\dbata\OneDrive\Escritorio\Checkpoint 1\Version 1.5 - Si limitador de corriente - Etapa de ganancia de tencion intermedia\Version 1.5.asc

Warning: Multiple definitions of model "2scr375p" Type: BJT
Warning: Multiple definitions of model "bc857b" Type: BJT
Warning: Multiple definitions of model "bc847c" Type: BJT
Warning: Multiple definitions of model "bc847b" Type: BJT

vo1rl: v(vo)=5.022 at 12
vo2rl: v(vo)=5.01849 at 24
reglin: ((vo2rl-vo1rl)/12)=-0.000292233


Date: Thu Mar 27 18:17:02 2025
Total elapsed time: 0.040 seconds.

tnom = 27
temp = 27
method = trap
totiter = 2043
traniter = 0
tranpoints = 0
accept = 0
rejected = 0
matrix size = 45
fillins = 29
solver = Normal
Matrix Compiler1: 5.19 KB object code size  0.7/0.4/[0.3]
Matrix Compiler2: 4.58 KB object code size  0.3/0.4/[0.2]

