Circuit: * C:\Users\Lionheart\Desktop\Checkpoint 3\LTSpice\Pulso\Pulso.asc

WARNING: Node NC_01 is floating.

WARNING: Less than two connections to node NC_01.  This node is used by C4.
Direct Newton iteration failed to find .op point.  (Use ".option noopiter" to skip.)
Starting Gmin stepping
Gmin = 10
Gmin = 1.07374
Gmin = 0.115292
Gmin = 0.0123794
Gmin = 0.00132923
Gmin = 0.000142725
Gmin = 1.5325e-005
Gmin = 1.6455e-006
Gmin = 1.76685e-007
Gmin = 1.89714e-008
Gmin = 2.03704e-009
Gmin = 2.18725e-010
Gmin = 2.34854e-011
Gmin = 2.52173e-012
Gmin = 2.70769e-013
Gmin = 0
Gmin stepping succeeded in finding the operating point.




Date: Thu May 08 17:08:31 2025
Total elapsed time: 0.411 seconds.

tnom = 27
temp = 27
method = modified trap
totiter = 32885
traniter = 32428
tranpoints = 16161
accept = 16115
rejected = 46
matrix size = 61
fillins = 58
solver = Normal
Matrix Compiler1: 7.85 KB object code size  1.0/0.5/[0.3]
Matrix Compiler2: 6.34 KB object code size  0.7/0.6/[0.3]

