Circuit: * C:\Users\Lionheart\Desktop\Checkpoint 2\LTSpice\tStartUp\Pulso.asc

Limiting fall time of source v1 to 0.01
WARNING: Node NC_01 is floating.

WARNING: Less than two connections to node NC_01.  This node is used by C4.
WARNING: Less than two connections to node VCC.  This node is used by E§VIN1.
Direct Newton iteration for .op point succeeded.



Date: Fri Apr 18 19:57:29 2025
Total elapsed time: 0.064 seconds.

tnom = 27
temp = 27
method = modified trap
totiter = 2513
traniter = 2470
tranpoints = 1152
accept = 1115
rejected = 37
matrix size = 61
fillins = 59
solver = Normal
Matrix Compiler1: 8.08 KB object code size  1.0/0.6/[0.3]
Matrix Compiler2: 6.33 KB object code size  0.4/0.6/[0.3]

