LTspice 24.1.6 for Windows
Circuit: C:\Users\Lionheart\Documents\GitHub\Taller-de-Circuitos-Electronicos-TPI\Checkpoint 1\Version 1 - Sin limitador de corriente\LTSpice\Version 1.net
Start Time: Sun Mar 30 11:35:25 2025
solver = Normal
Maximum thread count: 8
tnom = 27
temp = 27
method = trap
.step 
Total elapsed time: 0.038 seconds.

Files loaded:
C:\Users\Lionheart\Documents\GitHub\Taller-de-Circuitos-Electronicos-TPI\Checkpoint 1\Version 1 - Sin limitador de corriente\LTSpice\Version 1.net
C:\Users\Lionheart\AppData\Local\LTspice\lib\cmp\standard.bjt

vo1rl: V(Vo)=5.03650951385 at 12
vo2rl: V(Vo)=5.05724382401 at 24
reglin: ((Vo2rl-Vo1rl)/12)=0.00172785917918
