Circuit: * C:\Users\dbata\OneDrive\Escritorio\Checkpoint 1\Version 3\Version 3.asc

Warning: Multiple definitions of model "2scr375p" Type: BJT
Warning: Multiple definitions of model "bc857b" Type: BJT
Warning: Multiple definitions of model "bc847c" Type: BJT
Warning: Multiple definitions of model "bc847b" Type: BJT
Early termination of direct N-R iteration.
Direct Newton iteration failed to find .op point.  (Use ".option noopiter" to skip.)
Starting Gmin stepping
Gmin = 10
vernier = 0.5
vernier = 0.25
vernier = 0.125
vernier = 0.0625
Gmin = 8.61953
vernier = 0.03125
vernier = 0.015625
vernier = 0.0078125
vernier = 0.00390625
Gmin = 8.47038
vernier = 0.00195313
vernier = 0.000976563
vernier = 0.000488281
Gmin = 0
Gmin stepping failed

Starting source stepping with srcstepmethod=0
Source Step = 3.0303%
Source Step = 33.3333%
Source Step = 63.6364%
Source Step = 93.9394%
Source stepping succeeded in finding the operating point.


vo1rl: v(vo)=11.3779 at 12
vo2rl: v(vo)=23.3579 at 24
reglin: ((vo2rl-vo1rl)/12)=0.998329


Date: Thu Mar 27 18:27:52 2025
Total elapsed time: 0.623 seconds.

tnom = 27
temp = 27
method = trap
totiter = 3780
traniter = 0
tranpoints = 0
accept = 0
rejected = 0
matrix size = 172
fillins = 1479
solver = Normal
Thread vector: 7.3/5.9[3] 0.0/0.0[0] 4.6/3.8[2] 0.8/3.6[1]  2592/500
Matrix Compiler1:   12307 opcodes  30.2/8.4/[1.8]
Matrix Compiler2: 38.68 KB object code size  6.1/2.7/[1.0]

