Circuit: * C:\Users\Lionheart\Desktop\Checkpoint 2\LTSpice\Lazo de Corriente\Ganancia de Lazo de Correo Sin Compensar.asc

WARNING: Node NC_03 is floating.

WARNING: Less than two connections to node NC_01.  This node is used by Q:U2:2.
WARNING: Less than two connections to node N015.  This node is used by R1.
WARNING: Less than two connections to node NC_03.  This node is used by C2.
Direct Newton iteration for .op point succeeded.



Date: Tue May 06 20:15:59 2025
Total elapsed time: 0.029 seconds.

tnom = 27
temp = 27
method = trap
totiter = 23
traniter = 0
tranpoints = 0
accept = 0
rejected = 0
matrix size = 74
fillins = 80
solver = Normal
Matrix Compiler1:     517 opcodes
Matrix Compiler2: 7.65 KB object code size
