Circuit: * C:\Users\dbata\OneDrive\Escritorio\Checkpoint 2\LTSpice\tStartUp\tStartUp.asc

Limiting fall time of source v1 to 0.01
WARNING: Less than two connections to node VCC.  This node is used by E§VIN1.
Direct Newton iteration for .op point succeeded.



Date: Thu Apr 24 19:33:47 2025
Total elapsed time: 0.368 seconds.

tnom = 27
temp = 27
method = modified trap
totiter = 13160
traniter = 13120
tranpoints = 6495
accept = 5721
rejected = 774
matrix size = 64
fillins = 57
solver = Normal
Matrix Compiler1: 7.22 KB object code size  1.8/0.7/[0.3]
Matrix Compiler2: off  [0.4]/0.6/0.5

