LTspice 24.1.6 for Windows
Circuit: C:\Users\Lionheart\Documents\GitHub\Taller-de-Circuitos-Electronicos-TPI\Checkpoint 1\Version 2 - Limitador de Corriente Basico\LTSpice\Version 2.net
Start Time: Sun Mar 30 14:53:55 2025
solver = Normal
Maximum thread count: 8
tnom = 27
temp = 27
method = trap
Direct Newton iteration failed to find .op point.  (Use ".option noopiter" to skip.)
Starting Gmin stepping
Gmin = 10
Gmin = 1.07374
Gmin = 0.115292
Gmin = 0.0123794
Gmin = 0.00132923
Gmin = 0.000142725
Gmin = 1.5325e-05
Gmin = 1.6455e-06
Gmin = 1.76685e-07
Gmin = 1.89714e-08
Gmin = 2.03704e-09
Gmin = 2.18725e-10
Gmin = 2.34854e-11
Gmin = 2.52173e-12
Gmin = 2.70769e-13
Gmin = 0
Gmin stepping succeeded in finding the operating point.

Total elapsed time: 8.499 seconds.

Files loaded:
C:\Users\Lionheart\Documents\GitHub\Taller-de-Circuitos-Electronicos-TPI\Checkpoint 1\Version 2 - Limitador de Corriente Basico\LTSpice\Version 2.net
C:\Users\Lionheart\AppData\Local\LTspice\lib\cmp\standard.bjt

vo1rc: V(Vo)=5.03083562851 at 100
vo2rc: V(Vo)=5.02114825105 at 5
io1rc: I(RL)=0.0503083541989 at 100
io2rc: I(RL)=1.00441288738 at 5
regcar: (-(Vo2rc-Vo1rc)/(Io2rc-Io1rc))=0.0101533711708
