Circuit: * C:\Users\Lionheart\Desktop\Checkpoint 3\LTSpice\Rendimiento\Rendimiento.asc


vo1rl: v(vo)=5.00732 at 12
vo2rl: v(vo)=5.02599 at 24
reglin: ((vo2rl-vo1rl)/12)=0.0015562


Date: Thu May 08 17:42:52 2025
Total elapsed time: 0.470 seconds.

tnom = 27
temp = 27
method = trap
totiter = 58053
traniter = 0
tranpoints = 0
accept = 0
rejected = 0
matrix size = 56
fillins = 53
solver = Normal
Matrix Compiler1: 7.66 KB object code size  0.9/0.5/[0.3]
Matrix Compiler2: 5.96 KB object code size  0.4/0.5/[0.2]

