Circuit: * C:\Users\Lionheart\Desktop\Checkpoint 2\LTSpice\Pulso\Pulso.asc

WARNING: Node NC_01 is floating.

WARNING: Less than two connections to node NC_01.  This node is used by C4.
Direct Newton iteration failed to find .op point.  (Use ".option noopiter" to skip.)
Starting Gmin stepping
Gmin = 10
Gmin = 1.07374
Gmin = 0.115292
Gmin = 0.0123794
Gmin = 0.00132923
Gmin = 0.000142725
Gmin = 1.5325e-005
vernier = 0.5
Gmin = 2.5711e-006
vernier = 0.25
vernier = 0.333333
Gmin = 1.49344e-006
vernier = 0.444444
vernier = 0.592592
Gmin = 5.437e-007
vernier = 0.790123
Gmin = 1.10646e-007
vernier = 1
Gmin = 1.24011e-008
Gmin = 1.33156e-009
Gmin = 1.42975e-010
Gmin = 1.53518e-011
Gmin = 1.64839e-012
Gmin = 1.76994e-013
Gmin = 0
Gmin stepping succeeded in finding the operating point.




Date: Thu Apr 24 21:22:28 2025
Total elapsed time: 1.930 seconds.

tnom = 27
temp = 27
method = modified trap
totiter = 296779
traniter = 295957
tranpoints = 121184
accept = 113839
rejected = 7345
matrix size = 63
fillins = 53
solver = Normal
Matrix Compiler1: 7.59 KB object code size  1.2/0.5/[0.3]
Matrix Compiler2: 6.32 KB object code size  0.6/0.6/[0.3]

