Circuit: * C:\Users\Lionheart\Desktop\Checkpoint 2\LTSpice\Lazo de Corriente\Ganancia de Lazo de Correo Compensado.asc

WARNING: Less than two connections to node NC_01.  This node is used by Q:U2:2.
WARNING: Less than two connections to node N015.  This node is used by R1.
Direct Newton iteration for .op point succeeded.



Date: Fri Apr 18 00:09:19 2025
Total elapsed time: 0.034 seconds.

tnom = 27
temp = 27
method = trap
totiter = 23
traniter = 0
tranpoints = 0
accept = 0
rejected = 0
matrix size = 73
fillins = 78
solver = Normal
Matrix Compiler1:     514 opcodes
Matrix Compiler2: 7.58 KB object code size
