Circuit: * C:\Users\Lionheart\Desktop\Version Final\LTSpice\Ganancia Dependiente del tiempo.asc

Warning: Multiple definitions of model "2scr375p" Type: BJT
Warning: Multiple definitions of model "bc857b" Type: BJT
Warning: Multiple definitions of model "bc847c" Type: BJT
Warning: Multiple definitions of model "bc847b" Type: BJT
Direct Newton iteration failed to find .op point.  (Use ".option noopiter" to skip.)
Starting Gmin stepping
Gmin = 10
Gmin = 1.07374
Gmin = 0.115292
Gmin = 0.0123794
Gmin = 0.00132923
Gmin = 0.000142725
Gmin = 1.5325e-005
Gmin = 1.6455e-006
Gmin = 1.76685e-007
Gmin = 1.89714e-008
Gmin = 2.03704e-009
Gmin = 2.18725e-010
Gmin = 2.34854e-011
Gmin = 2.52173e-012
Gmin = 2.70769e-013
Gmin = 0
Gmin stepping succeeded in finding the operating point.




Date: Tue Apr 01 20:08:05 2025
Total elapsed time: 0.767 seconds.

tnom = 27
temp = 27
method = modified trap
totiter = 20570
traniter = 20096
tranpoints = 10041
accept = 10036
rejected = 5
matrix size = 44
fillins = 36
solver = Normal
Matrix Compiler1: 5.47 KB object code size  0.7/0.4/[0.3]
Matrix Compiler2: 4.54 KB object code size  0.4/0.4/[0.3]

