Circuit: * C:\Users\Lionheart\Desktop\Version Final\LTSpice\Regulacion de Linea.asc

Warning: Multiple definitions of model "2scr375p" Type: BJT
Warning: Multiple definitions of model "bc857b" Type: BJT
Warning: Multiple definitions of model "bc847c" Type: BJT
Warning: Multiple definitions of model "bc847b" Type: BJT

vo1rl: v(vo)=5.02961 at 12
vo2rl: v(vo)=5.04124 at 24
reglin: ((vo2rl-vo1rl)/12)=0.000968933


Date: Tue Apr 01 23:33:59 2025
Total elapsed time: 0.022 seconds.

tnom = 27
temp = 27
method = trap
totiter = 708
traniter = 0
tranpoints = 0
accept = 0
rejected = 0
matrix size = 44
fillins = 36
solver = Normal
Matrix Compiler1: 5.47 KB object code size  0.7/0.4/[0.3]
Matrix Compiler2: 4.54 KB object code size  0.3/0.4/[0.2]

