Circuit: * C:\Users\dbata\OneDrive\Escritorio\Checkpoint 1\Version 1 - Si limitador de corriente\Version 1.asc

Warning: Multiple definitions of model "2scr375p" Type: BJT
Warning: Multiple definitions of model "bc857b" Type: BJT
Warning: Multiple definitions of model "bc847c" Type: BJT
Warning: Multiple definitions of model "bc847b" Type: BJT

vo1rl: v(vo)=5.03643 at 12
vo2rl: v(vo)=5.05717 at 24
reglin: ((vo2rl-vo1rl)/12)=0.00172867


Date: Thu Mar 27 18:16:12 2025
Total elapsed time: 0.045 seconds.

tnom = 27
temp = 27
method = trap
totiter = 2053
traniter = 0
tranpoints = 0
accept = 0
rejected = 0
matrix size = 36
fillins = 24
solver = Normal
Matrix Compiler1: 4.16 KB object code size  0.5/0.3/[0.2]
Matrix Compiler2: 3.63 KB object code size  0.2/0.3/[0.2]

